12

H        1.2172336450     -0.1648539970      2.1560197563                 
C        0.6862955422     -0.0929474236      1.2155986205                 
C       -0.7115163350     -0.0354205880      1.2040813704                 
H       -1.2619643853     -0.0628226902      2.1355929992                 
C       -1.3978128608      0.0575267007     -0.0115173128                 
H       -2.4791997184      0.1020312899     -0.0204278359                 
C       -0.6862960920      0.0929471626     -1.2155983321                 
H       -1.2172341508      0.1648538375     -2.1560196554                 
C        0.7115160726      0.0354206964     -1.2040806643                 
H        1.2619663430      0.0628234531     -2.1355909324                 
C        1.3985100113      0.5883162643     -0.4162465884                 
H        2.5758599669      1.4940721087     -1.0367499240                 
