6

C       -4.5354206227      2.1976173581      0.0000000000                 
C       -3.2004010162      2.1871481871     -0.0000000000                 
F       -5.2155742994      2.9817548366      0.8770132139                 
F       -5.2277882447      1.4242431375     -0.8770132139                 
F       -2.5080333942      2.9605224077      0.8770132139                 
F       -2.5202473395      1.4030107086     -0.8770132139                 
